
FoamFile
{
    format      ascii;
    class       dictionary;
    location    "constant";
    object      pyrolisisDict;
}

#include "${FOAM_CASE}/constant/globalVars"

poreSize 1e-5;
htcoeff 125;

nSubTimeSteps 10;

species
(
	CO
	HCE2
	C2H6
	CHAR
	C6H5OCH3
	HCE1
	CH2OS
	U2ME12
	MLINO
	XYGR
	LIGOH
	CH2OHCH2CHO
	VANILLIN
	CH2O
	CELL
	COH2S
	C24H28O4
	C2H6S
	C6H10O5
	LIGCC
	C6H5OHS
	LIGO
	HCOOH
	ACQUA
	CHOCHO
	CH3OH
	CO2
	H2O
	CH4
	CH3CO2H
	CH4S
	LIG
	H2
	CRESOL
	H2S
	CO2S
	C2H5OH
	TANN
	LIGH
	C6H6O3
	C2H4
	C6H5OH
	C5H8O4
	COS
	XYHW
	FURFURAL
	LIGC
	GMSW
	C2H5CHO
	CH3OHS
	ITANN
	C2H4S
	CH3CHO
	C2H3CHO
	CELLA
	TGL
	CH2OHCHO
	O2
);

reactions
(	Cell1
	Cell2
	Cell3
	Cell4
	Hemi5
	Hemi6
	Hemi7
	Hemi8
	Hemi9
	Hemi10
	Lig11
	Lig12
	Lig13
	Lig14
	Lig15
	Lig16
	Lig17
	Lig18
	Ext19
	Ext20
	Ext21
	Met22
	Met23
	Met24
	Met25
	Met26
	Met27
	Met28
	Met29
	Met30
	Met31
	Evap32
);

speciesCoeffs
{

    ACQUA
	{
		name ACQUA;
        rho 1000.0;
        cp 4217.823954345044;
        molWeight 18.0;
        kappa 0.4;
        hf 0;
        gas false;
    }
                    
    C24H28O4
	{
		name C24H28O4;
        rho 0.5;
        cp 669.2698008604768;
        molWeight 380.0;
        kappa 0.2;
        hf 0;
        gas true;
    }
                    
    C2H3CHO
	{
		name C2H3CHO;
        rho 0.5;
        cp 1242.4969566517093;
        molWeight 56.0;
        kappa 0.2;
        hf 0;
        gas true;
    }
                    
    C2H4
	{
		name C2H4;
        rho 0.5;
        cp 1531.0975121092438;
        molWeight 28.0;
        kappa 0.2;
        hf 0;
        gas true;
    }
                    
    C2H4S
	{
		name C2H4S;
        rho 1500.0;
        cp 1801.3674115872102;
        molWeight 28.0;
        kappa 0.4;
        hf 0;
        gas false;
    }
                    
    C2H5CHO
	{
		name C2H5CHO;
        rho 0.5;
        cp 1297.3150720048573;
        molWeight 58.0;
        kappa 0.2;
        hf 0;
        gas true;
    }
                    
    C2H5OH
	{
		name C2H5OH;
        rho 0.5;
        cp 1379.9566132471266;
        molWeight 46.0;
        kappa 0.2;
        hf 0;
        gas true;
    }
                    
    C2H6
	{
		name C2H6;
        rho 0.5;
        cp 1749.3349750777709;
        molWeight 30.0;
        kappa 0.2;
        hf 0;
        gas true;
    }
                    
    C2H6S
	{
		name C2H6S;
        rho 1500.0;
        cp 1802.0951377503786;
        molWeight 30.0;
        kappa 0.4;
        hf 0;
        gas false;
    }
                    
    C5H8O4
	{
		name C5H8O4;
        rho 0.5;
        cp 1008.2652550130397;
        molWeight 132.0;
        kappa 0.2;
        hf 0;
        gas true;
    }
                    
    C6H10O5
	{
		name C6H10O5;
        rho 0.5;
        cp 1057.2530874481201;
        molWeight 162.0;
        kappa 0.2;
        hf 0;
        gas true;
    }
                    
    C6H5OCH3
	{
		name C6H5OCH3;
        rho 0.5;
        cp 1143.2972133527412;
        molWeight 108.0;
        kappa 0.2;
        hf 0;
        gas true;
    }
                    
    C6H5OH
	{
		name C6H5OH;
        rho 0.5;
        cp 1098.7482886548628;
        molWeight 94.0;
        kappa 0.2;
        hf 0;
        gas true;
    }
                    
    C6H5OHS
	{
		name C6H5OHS;
        rho 1500.0;
        cp 1800.0613357762468;
        molWeight 94.0;
        kappa 0.4;
        hf 0;
        gas false;
    }
                    
    C6H6O3
	{
		name C6H6O3;
        rho 0.5;
        cp 1025.0260143789249;
        molWeight 126.0;
        kappa 0.2;
        hf 0;
        gas true;
    }
                    
    CELL
	{
		name CELL;
        rho 1500.0;
        cp 1799.4648673213603;
        molWeight 162.0;
        kappa 0.4;
        hf 0;
        gas false;
    }
                    
    CELLA
	{
		name CELLA;
        rho 1500.0;
        cp 1799.4648673213603;
        molWeight 162.0;
        kappa 0.4;
        hf 0;
        gas false;
    }
                    
    CH2O
	{
		name CH2O;
        rho 0.5;
        cp 1179.3618318919807;
        molWeight 30.0;
        kappa 0.2;
        hf 0;
        gas true;
    }
                    
    CH2OHCH2CHO
	{
		name CH2OHCH2CHO;
        rho 0.5;
        cp 1264.8118154131905;
        molWeight 74.0;
        kappa 0.2;
        hf 0;
        gas true;
    }
                    
    CH2OHCHO
	{
		name CH2OHCHO;
        rho 0.5;
        cp 1106.1782317300936;
        molWeight 60.0;
        kappa 0.2;
        hf 0;
        gas true;
    }
                    
    CH2OS
	{
		name CH2OS;
        rho 1500.0;
        cp 1799.4582088237212;
        molWeight 30.0;
        kappa 0.4;
        hf 0;
        gas false;
    }
                    
    CH3CHO
	{
		name CH3CHO;
        rho 0.5;
        cp 1256.8391453899567;
        molWeight 44.0;
        kappa 0.2;
        hf 0;
        gas true;
    }
                    
    CH3CO2H
	{
		name CH3CO2H;
        rho 0.5;
        cp 1056.8558751559228;
        molWeight 60.0;
        kappa 0.2;
        hf 0;
        gas true;
    }
                    
    CH3OH
	{
		name CH3OH;
        rho 0.5;
        cp 1340.7661575788707;
        molWeight 32.0;
        kappa 0.2;
        hf 0;
        gas true;
    }
                    
    CH3OHS
	{
		name CH3OHS;
        rho 1500.0;
        cp 1800.2597772744098;
        molWeight 32.0;
        kappa 0.4;
        hf 0;
        gas false;
    }
                    
    CH4
	{
		name CH4;
        rho 0.5;
        cp 2230.2207853417776;
        molWeight 16.0;
        kappa 0.2;
        hf 0;
        gas true;
    }
                    
    CH4S
	{
		name CH4S;
        rho 1500.0;
        cp 1802.73189736891;
        molWeight 16.0;
        kappa 0.4;
        hf 0;
        gas false;
    }
                    
    CHAR
	{
		name CHAR;
        rho 1700.0;
        cp 962.1327204076933;
        molWeight 12.0;
        kappa 0.4;
        hf 0;
        gas false;
    }
                    
    CHOCHO
	{
		name CHOCHO;
        rho 0.5;
        cp 1041.185252532495;
        molWeight 58.0;
        kappa 0.2;
        hf 0;
        gas true;
    }
                    
    CO
	{
		name CO;
        rho 0.5;
        cp 1040.6851211560213;
        molWeight 28.0;
        kappa 0.2;
        hf 0;
        gas true;
    }
                    
    CO2
	{
		name CO2;
        rho 0.5;
        cp 843.7740277561866;
        molWeight 44.0;
        kappa 0.2;
        hf 0;
        gas true;
    }
                    
    CO2S
	{
		name CO2S;
        rho 1500.0;
        cp 1798.2677771885556;
        molWeight 44.0;
        kappa 0.4;
        hf 0;
        gas false;
    }
                    
    COH2S
	{
		name COH2S;
        rho 1500.0;
        cp 1799.4582088237212;
        molWeight 30.0;
        kappa 0.4;
        hf 0;
        gas false;
    }
                    
    COS
	{
		name COS;
        rho 1500.0;
        cp 1798.54213147921;
        molWeight 28.0;
        kappa 0.4;
        hf 0;
        gas false;
    }
                    
    CRESOL
	{
		name CRESOL;
        rho 0.5;
        cp 1164.362600399619;
        molWeight 108.0;
        kappa 0.2;
        hf 0;
        gas true;
    }
                    
    FURFURAL
	{
		name FURFURAL;
        rho 0.5;
        cp 988.9863285555634;
        molWeight 96.0;
        kappa 0.2;
        hf 0;
        gas true;
    }
                    
    GMSW
	{
		name GMSW;
        rho 1500.0;
        cp 1799.4663806830424;
        molWeight 132.0;
        kappa 0.4;
        hf 0;
        gas false;
    }
                    
    H2
	{
		name H2;
        rho 0.5;
        cp 14416.595705268624;
        molWeight 2.0;
        kappa 0.2;
        hf 0;
        gas true;
    }
                    
    H2O
	{
		name H2O;
        rho 0.5;
        cp 1865.8543540790429;
        molWeight 18.0;
        kappa 0.2;
        hf 0;
        gas true;
    }
                    
    H2S
	{
		name H2S;
        rho 1500.0;
        cp 1812.283300318382;
        molWeight 2.0;
        kappa 0.4;
        hf 0;
        gas false;
    }
                    
    HCE1
	{
		name HCE1;
        rho 1500.0;
        cp 1799.4663806830424;
        molWeight 132.0;
        kappa 0.4;
        hf 0;
        gas false;
    }
                    
    HCE2
	{
		name HCE2;
        rho 1500.0;
        cp 1799.4663806830424;
        molWeight 132.0;
        kappa 0.4;
        hf 0;
        gas false;
    }
                    
    HCOOH
	{
		name HCOOH;
        rho 0.5;
        cp 897.67671036152;
        molWeight 46.0;
        kappa 0.2;
        hf 0;
        gas true;
    }
                    
    ITANN
	{
		name ITANN;
        rho 1500.0;
        cp 1799.1717103124342;
        molWeight 164.0;
        kappa 0.4;
        hf 0;
        gas false;
    }
                    
    LIG
	{
		name LIG;
        rho 1500.0;
        cp 1799.7411451930463;
        molWeight 208.0;
        kappa 0.4;
        hf 0;
        gas false;
    }
                    
    LIGC
	{
		name LIGC;
        rho 1500.0;
        cp 1799.8024560057102;
        molWeight 258.0;
        kappa 0.4;
        hf 0;
        gas false;
    }
                    
    LIGCC
	{
		name LIGCC;
        rho 1500.0;
        cp 1799.8024560057102;
        molWeight 258.0;
        kappa 0.4;
        hf 0;
        gas false;
    }
                    
    LIGH
	{
		name LIGH;
        rho 1500.0;
        cp 1799.7845257525405;
        molWeight 436.0;
        kappa 0.4;
        hf 0;
        gas false;
    }
                    
    LIGO
	{
		name LIGO;
        rho 1500.0;
        cp 1799.5445533823101;
        molWeight 422.0;
        kappa 0.4;
        hf 0;
        gas false;
    }
                    
    LIGOH
	{
		name LIGOH;
        rho 1500.0;
        cp 1799.6931726368018;
        molWeight 378.0;
        kappa 0.4;
        hf 0;
        gas false;
    }
                    
    MLINO
	{
		name MLINO;
        rho 0.5;
        cp 1474.56639801358;
        molWeight 294.0;
        kappa 0.2;
        hf 0;
        gas true;
    }
                    
    N2
	{
		name N2;
        rho 0.5;
        cp 1040.0881656311146;
        molWeight 28.0;
        kappa 0.2;
        hf 0;
        gas true;
    }
                    
    O2
	{
		name O2;
        rho 0.5;
        cp 1835.9087028994384;
        molWeight 16.0;
        kappa 0.2;
        hf 0;
        gas true;
    }
                    
    TANN
	{
		name TANN;
        rho 1500.0;
        cp 1799.402218620059;
        molWeight 304.0;
        kappa 0.4;
        hf 0;
        gas false;
    }
                    
    TGL
	{
		name TGL;
        rho 1500.0;
        cp 1798.7418586205263;
        molWeight 897.0;
        kappa 0.4;
        hf 0;
        gas false;
    }
                    
    U2ME12
	{
		name U2ME12;
        rho 0.5;
        cp 1454.0699124353891;
        molWeight 210.0;
        kappa 0.2;
        hf 0;
        gas true;
    }
                    
    VANILLIN
	{
		name VANILLIN;
        rho 0.5;
        cp 1081.68405752892;
        molWeight 152.0;
        kappa 0.2;
        hf 0;
        gas true;
    }
                    
    XYGR
	{
		name XYGR;
        rho 1500.0;
        cp 1799.4663806830424;
        molWeight 132.0;
        kappa 0.4;
        hf 0;
        gas false;
    }
                    
    XYHW
	{
		name XYHW;
        rho 1500.0;
        cp 1799.4663806830424;
        molWeight 132.0;
        kappa 0.4;
        hf 0;
        gas false;
    }
                    
    ASH
	{
		name ASH;
        rho 7.8399;
        cp 180005.75114639642;
        molWeight 1.0;
        kappa 0.4;
        hf 0;
        gas false;
    }
                    
}
reactionCoeffs
// add heats of reaction from comsol in J/kg
// positive sign means exothermic
// so all signs are flipped from their original
{

	Cell1
    {
    reactants ( CELL  );
    reactant_stochiometric_coefficients (1);
    products ( CELLA);
    product_stochiometric_coefficients (1);

    A           150000000000000.0;
    beta        0;
    Ta          23652.63411;
    heatOfReaction 0.0;
}


	Cell2
    {
    reactants ( CELLA  );
    reactant_stochiometric_coefficients (1);
    products ( CH2OHCH2CHO  CH2OHCHO  CHOCHO  CH3CHO  C6H6O3  C2H5CHO  CH3OH  CH2O  CO  CO2  H2  H2O  HCOOH  CH4  CHAR  COS  CH2OS  H2S);
    product_stochiometric_coefficients (0.05 0.4 0.03 0.17 0.25 0.35 0.2 0.15 0.49 0.43 0.13 0.93 0.02 0.05 0.66 0.05 0.05 0.1);

    A           2500000.0;
    beta        0;
    Ta          9612.027905;
    heatOfReaction -722100.0;
}


	Cell3
    {
    reactants ( CELLA  );
    reactant_stochiometric_coefficients (1);
    products ( C6H10O5);
    product_stochiometric_coefficients (1);

    A           3.3;
    beta        1;
    Ta          5032.475343;
    heatOfReaction -780700.0;
}


	Cell4
    {
    reactants ( CELL  );
    reactant_stochiometric_coefficients (1);
    products ( H2  H2O  CHAR  COH2S  COS  CH2OS  H2S);
    product_stochiometric_coefficients (0.125 4.45 5.45 0.12 0.25 0.18 0.125);

    A           90000000.0;
    beta        0;
    Ta          15600.67356;
    heatOfReaction 1227000.00;
}


	Hemi5
    {
    reactants ( GMSW  );
    reactant_stochiometric_coefficients (1);
    products ( HCE1  HCE2);
    product_stochiometric_coefficients (0.7 0.3);

    A           10000000000.0;
    beta        0;
    Ta          15600.67356;
    heatOfReaction -22720.00;
}


	Hemi6
    {
    reactants ( XYHW  );
    reactant_stochiometric_coefficients (1);
    products ( HCE1  HCE2);
    product_stochiometric_coefficients (0.35 0.65);

    A           125000000000.0;
    beta        0;
    Ta          15801.97258;
    heatOfReaction -22720.00;
}


	Hemi7
    {
    reactants ( XYGR  );
    reactant_stochiometric_coefficients (1);
    products ( HCE1  HCE2);
    product_stochiometric_coefficients (0.12 0.88);

    A           125000000000.0;
    beta        0;
    Ta          15097.42603;
    heatOfReaction -22720.00;
}


	Hemi8
    {
    reactants ( HCE1  );
    reactant_stochiometric_coefficients (1);
    products ( CH2OHCH2CHO  FURFURAL  CHOCHO  C6H6O3  CO2  H2  H2O  C6H10O5  CH4  C5H8O4  CHAR);
    product_stochiometric_coefficients (0.06 0.16 0.1 0.13 0.09 0.02 0.54 0.25 0.1 0.25 0.1);

    A           16.0;
    beta        1;
    Ta          6491.893192;
    heatOfReaction -824300.00;
}


	Hemi9
    {
    reactants ( HCE1  );
    reactant_stochiometric_coefficients (1);
    products ( CH2O  CO  CO2  H2  H2O  HCOOH  C2H4  CH4  CHAR  COH2S  CO2S  COS  CH4S  C2H4S  CH2OS  H2S  C2H6S);
    product_stochiometric_coefficients (0.4 0.49 0.39 0.1 0.4 0.05 0.1 0.3 0.975 0.37 0.51 0.01 0.325 0.075 0.43 0.05 0.2);

    A           0.003;
    beta        1;
    Ta          1811.691123;
    heatOfReaction 181700.00;
}


	Hemi10
    {
    reactants ( HCE2  );
    reactant_stochiometric_coefficients (1);
    products ( FURFURAL  CH3CO2H  CH2OHCHO  CO  CO2  H2 H2O  HCOOH  C2H5OH  CH4  CHAR  COH2S  CO2S CH3OHS  CH4S  C2H4S  CH2OS  H2S  C2H6S);
    product_stochiometric_coefficients (0.145 0.105 0.035 0.3 0.5125 0.5505 0.056 0.0175 0.049 0.1895 0.7125 0.78 0.45 0.105 0.05 0.1 0.18 0.21 0.2);

    A           7000000000.0;
    beta        0;
    Ta          15349.0498;
    heatOfReaction -186300.00;
}


	Lig11
    {
    reactants ( LIGH  );
    reactant_stochiometric_coefficients (1);
    products ( CH2OHCHO  C2H5CHO  CO  C2H4  C2H6  LIGOH);
    product_stochiometric_coefficients (0.2 0.5 0.1 0.4 0.1 1);

    A           6700000000000.0;
    beta        0;
    Ta          18871.78254;
    heatOfReaction -302000.00;
}


	Lig12
    {
    reactants ( LIGO  );
    reactant_stochiometric_coefficients (1);
    products ( CO2  LIGOH);
    product_stochiometric_coefficients (1 1);

    A           330000000.0;
    beta        0;
    Ta          12832.81212;
    heatOfReaction -302100.00;
}


	Lig13
    {
    reactants ( LIGC  );
    reactant_stochiometric_coefficients (1);
    products ( C6H5OCH3  CH2O  CO  CO2  H2O  C2H4  VANILLIN  LIGCC  CHAR  COH2S  CH4S  CH2OS  H2S  C2H6S);
    product_stochiometric_coefficients (0.1 0.22 0.21 0.1 1 0.27 0.1 0.35 5.85 0.4 0.36 0.17 0.1 0.2);

    A           100000000000.0;
    beta        0;
    Ta          18720.80828;
    heatOfReaction 44900.00;
}


	Lig14
    {
    reactants ( LIGCC  );
    reactant_stochiometric_coefficients (1);
    products ( C6H5OCH3  CH2OHCHO  CO  H2  H2O  C2H4  CH4  VANILLIN  CRESOL  C2H6  CHAR  COS );
    product_stochiometric_coefficients (0.15 0.35 1.15 0.7 0.7 0.3 0.45 0.25 0.15 0.4 6.8 0.4);

    A           10000.0;
    beta        0;
    Ta          12480.53885;
    heatOfReaction 351600.00;
}


	Lig15
    {
    reactants ( LIGOH  );
    reactant_stochiometric_coefficients (1);
    products ( C24H28O4  C2H3CHO  CH3OH  CO  CO2  H2O  HCOOH  CH4  LIG  CHAR  COH2S  COS  CH3OHS  CH4S  C2H4S  CH2OS  C2H6S);
    product_stochiometric_coefficients (0.025 0.1 0.6 0.65 0.05 1 0.05 0.1 0.8999843 4.25 0.4 0.6 0.3 0.25 0.1 0.45 0.15);

    A           150000000.0;
    beta        0;
    Ta          15097.42603;
    heatOfReaction 207300.00;
}


	Lig16
    {
    reactants ( LIG  );
    reactant_stochiometric_coefficients (1);
    products ( C6H5OCH3  CH3CHO  CO  C2H4  VANILLIN  CHAR);
    product_stochiometric_coefficients (0.1 0.3 0.6 0.5 1 0.1);

    A           4.0;
    beta        1;
    Ta          6038.970411;
    heatOfReaction -1021000.00;
}


	Lig17
    {
    reactants ( LIG  );
    reactant_stochiometric_coefficients (1);
    products ( CH2O  CO  CO2  H2O  CH4  CHAR  COH2S  COS  CH3OHS  CH4S  C2H4S  CH2OS  H2S );
    product_stochiometric_coefficients (0.4 0.3 0.1 0.6 0.2 6.1 0.65 0.2 0.4 0.4 0.5 1.25 0.1);

    A           0.08;
    beta        1;
    Ta          4025.980274;
    heatOfReaction 704400.00;
}


	Lig18
    {
    reactants ( LIG  );
    reactant_stochiometric_coefficients (1);
    products ( CH3OH  CH2O  CO  H2O  C2H4  CH4  C2H6  CHAR );
    product_stochiometric_coefficients (0.4 0.4 2.6 0.6 0.75 0.6 0.5 4.5);

    A           1500000000.0;
    beta        0;
    Ta          15852.29733;
    heatOfReaction -370400.00;
}


	Ext19
    {
    reactants ( TGL  );
    reactant_stochiometric_coefficients (1);
    products ( C2H3CHO  U2ME12  MLINO);
    product_stochiometric_coefficients (1 0.5 2.5);

    A           7000000000000.0;
    beta        0;
    Ta          22998.41232;
    heatOfReaction -64610.00;
}


	Ext20
    {
    reactants ( TANN  );
    reactant_stochiometric_coefficients (1);
    products ( H2O  C6H5OH  ITANN  COS  C6H5OHS);
    product_stochiometric_coefficients (1 0.85 1 1 0.15);

    A           20.0;
    beta        0;
    Ta          5032.475343;
    heatOfReaction -199000.00;
}


	Ext21
    {
    reactants ( ITANN  );
    reactant_stochiometric_coefficients (1);
    products ( CO  H2O  CHAR  COH2S  CH2OS);
    product_stochiometric_coefficients (2 1 5 0.45 0.55);

    A           1000.0;
    beta        0;
    Ta          12581.18836;
    heatOfReaction 43780.00;
}


	Met22
    {
    reactants ( CO2S  );
    reactant_stochiometric_coefficients (1);
    products ( CO2);
    product_stochiometric_coefficients (1);

    A           1000000.0;
    beta        0;
    Ta          12329.56459;
    heatOfReaction 1872000.00;
}


	Met23
    {
    reactants ( COS  );
    reactant_stochiometric_coefficients (1);
    products ( CO);
    product_stochiometric_coefficients (1);

    A           5000000000000.0;
    beta        0;
    Ta          26420.49555;
    heatOfReaction 1632000.00;
}


	Met24
    {
    reactants ( CH3OHS  );
    reactant_stochiometric_coefficients (1);
    products ( CH3OH);
    product_stochiometric_coefficients (1);

    A           2000000000000.0;
    beta        0;
    Ta          25162.37671;
    heatOfReaction -68420.00;
}


	Met25
    {
    reactants ( CH2OS  );
    reactant_stochiometric_coefficients (1);
    products ( CO  H2  H2O  CHAR);
    product_stochiometric_coefficients (0.2 0.2 0.8 0.8);

    A           60000000000.0;
    beta        0;
    Ta          25162.37671;
    heatOfReaction 885100.00;
}


	Met26
    {
    reactants ( C2H6S  );
    reactant_stochiometric_coefficients (1);
    products ( C2H6);
    product_stochiometric_coefficients (1);

    A           100000000000.0;
    beta        0;
    Ta          26168.87178;
    heatOfReaction 226300.00;
}


	Met27
    {
    reactants ( CH4S  );
    reactant_stochiometric_coefficients (1);
    products ( CH4);
    product_stochiometric_coefficients (1);

    A           100000000000.0;
    beta        0;
    Ta          26672.11932;
    heatOfReaction 365400.00;
}


	Met28
    {
    reactants ( C2H4S  );
    reactant_stochiometric_coefficients (1);
    products ( C2H4 );
    product_stochiometric_coefficients (1);

    A           100000000000.0;
    beta        0;
    Ta          27175.36685;
    heatOfReaction 78810.00;
}


	Met29
    {
    reactants ( C6H5OHS  );
    reactant_stochiometric_coefficients (1);
    products ( C6H5OH);
    product_stochiometric_coefficients (1);

    A           1500000000000.0;
    beta        0;
    Ta          27678.61439;
    heatOfReaction -128600.00;
}


	Met30
    {
    reactants ( COH2S  );
    reactant_stochiometric_coefficients (1);
    products ( CO  H2  H2O  CHAR);
    product_stochiometric_coefficients (0.8 0.8 0.2 0.2);

    A           1000000000.0;
    beta        0;
    Ta          29691.60452;
    heatOfReaction -6806000.00;
}


	Met31
    {
    reactants ( H2S  );
    reactant_stochiometric_coefficients (1);
    products ( H2);
    product_stochiometric_coefficients (1);

    A           100000000.0;
    beta        0;
    Ta          35227.3274;
    heatOfReaction 5026000.00;
}


	Evap32
    {
    reactants ( ACQUA  );
    reactant_stochiometric_coefficients (1);
    products ( H2O);
    product_stochiometric_coefficients (1);

    A           1;
    beta        1;
    Ta          4025.980274;
    heatOfReaction -2700000.00;
}

}

// ************************************************************************* //
