/*--------------------------------*- C++ -*----------------------------------*\
  =========                 |
  \\      /  F ield         | OpenFOAM: The Open Source CFD Toolbox
   \\    /   O peration     | Website:  https://openfoam.org
    \\  /    A nd           | Version:  dev
     \\/     M anipulation  |
\*---------------------------------------------------------------------------*/
FoamFile
{
    format      ascii;
    class       dictionary;
    location    "system";
    object      fvSchemes;
}
// * * * * * * * * * * * * * * * * * * * * * * * * * * * * * * * * * * * * * //

ddtSchemes
{
    default         Euler;
}

gradSchemes
{
    default         Gauss linear;
}

divSchemes
{
    default         none;

    div(phi,U)      Gauss Gamma 1;
    div((nuEff*dev2(T(grad(U))))) Gauss linear;
    div(phi,epsilon) Gauss Gamma 1;
    div(phi,k)      Gauss Gamma 1;
    div(phi,T)      Gauss Gamma 1;
    div(((rho*nuEff)*dev2(T(grad(U)))))  Gauss linear;
    div(phi,Yi_h) Gauss Gamma 1;
    div(phi,K) Gauss Gamma 1;
}

laplacianSchemes
{
    default          Gauss linear uncorrected;
}

interpolationSchemes
{
    default         linear;
}

snGradSchemes
{
    default         uncorrected;
}


// ************************************************************************* //
