/*--------------------------------*- C++ -*----------------------------------*\
  =========                 |
  \\      /  F ield         | OpenFOAM: The Open Source CFD Toolbox
   \\    /   O peration     | Website:  https://openfoam.org
    \\  /    A nd           | Version:  dev
     \\/     M anipulation  |
\*---------------------------------------------------------------------------*/
FoamFile
{
    version     9.0;
    format      ascii;
    class       dictionary;
    location    "system";
    object      controlDict;
}
// * * * * * * * * * * * * * * * * * * * * * * * * * * * * * * * * * * * * * //

application     porousSimpleFoam;

startFrom       latestTime;

startTime       0;

stopAt          endTime;

endTime         100;
//endTime         1;

//deltaT          0.0001;
deltaT          0.00005;

writeControl    runTime;

writeInterval   1;
//writeInterval   0.001;

purgeWrite      0;

writeFormat     binary;

writePrecision  6;

writeCompression off;

timeFormat      general;

timePrecision   6;

graphFormat     raw;

runTimeModifiable false;

adjustTimeStep true;

maxCo 0.3;

maxDeltaT 1e-3;


// ************************************************************************* //
